Version 4
SHEET 1 1504 920
WIRE -48 112 -48 32
WIRE 64 112 -48 112
WIRE 96 112 64 112
WIRE 256 128 256 96
WIRE 256 128 160 128
WIRE 320 128 256 128
WIRE 432 128 432 112
WIRE 432 128 320 128
WIRE 912 128 544 128
WIRE -192 144 -256 144
WIRE -80 144 -192 144
WIRE 96 144 -80 144
WIRE 432 144 432 128
WIRE 1056 144 1024 144
WIRE 1104 144 1056 144
WIRE 912 160 896 160
WIRE -400 176 -400 144
WIRE -256 176 -256 144
WIRE 128 176 128 160
WIRE -48 192 -48 112
WIRE -400 272 -400 256
WIRE -256 272 -256 256
WIRE -48 320 -48 272
WIRE 64 320 -48 320
WIRE 96 320 64 320
WIRE 256 336 256 304
WIRE 256 336 160 336
WIRE 384 336 256 336
WIRE 544 336 384 336
WIRE 576 336 576 320
WIRE 576 336 544 336
WIRE 752 336 752 320
WIRE 752 336 688 336
WIRE 1056 336 864 336
WIRE 1104 336 1056 336
WIRE -80 352 -80 144
WIRE 96 352 -80 352
WIRE 576 352 576 336
WIRE 752 352 752 336
WIRE 128 384 128 368
WIRE -48 400 -48 320
WIRE 544 464 544 336
WIRE 576 464 576 448
WIRE 576 464 544 464
WIRE 720 464 688 464
WIRE 576 480 576 464
WIRE 720 512 720 464
WIRE 752 512 720 512
WIRE -48 528 -48 480
WIRE 64 528 -48 528
WIRE 96 528 64 528
WIRE 896 528 896 160
WIRE 896 528 864 528
WIRE 256 544 256 512
WIRE 256 544 160 544
WIRE 384 544 256 544
WIRE 752 544 384 544
WIRE -80 560 -80 352
WIRE 96 560 -80 560
WIRE 128 592 128 576
WIRE -48 608 -48 528
WIRE -48 704 -48 688
FLAG 128 176 0
FLAG 128 96 Ub
IOPIN 128 96 In
FLAG 128 384 0
FLAG 128 304 Ub
IOPIN 128 304 In
FLAG 128 592 0
FLAG 128 512 Ub
IOPIN 128 512 In
FLAG 256 16 Ub
IOPIN 256 16 In
FLAG 256 224 Ub
IOPIN 256 224 In
FLAG 256 432 Ub
IOPIN 256 432 In
FLAG -48 -48 Ub
IOPIN -48 -48 In
FLAG -48 704 0
FLAG -256 272 0
FLAG -192 144 Vin
FLAG 64 528 Ut1
FLAG 64 320 Ut2
FLAG 64 112 Ut3
FLAG 384 544 A
FLAG 384 336 B
FLAG 320 128 C
FLAG 1104 208 0
FLAG 1104 400 0
FLAG 1056 144 ULED1
FLAG 1056 336 ULED2
FLAG -400 272 0
FLAG -400 144 Ub
IOPIN -400 144 Out
SYMBOL Opamps\\opamp2 128 64 R0
SYMATTR InstName U1
SYMATTR Value LM339
SYMBOL Opamps\\opamp2 128 272 R0
SYMATTR InstName U2
SYMATTR Value LM339
SYMBOL Opamps\\opamp2 128 480 R0
SYMATTR InstName U3
SYMATTR Value LM339
SYMBOL Misc\\EuropeanResistor 240 0 R0
SYMATTR InstName R5
SYMATTR Value 10k
SYMBOL Misc\\EuropeanResistor 240 208 R0
SYMATTR InstName R6
SYMATTR Value 10k
SYMBOL Misc\\EuropeanResistor 240 416 R0
SYMATTR InstName R7
SYMATTR Value 10k
SYMBOL Misc\\EuropeanResistor -64 -64 R0
SYMATTR InstName R1
SYMATTR Value 9.7k
SYMBOL Misc\\EuropeanResistor -64 176 R0
SYMATTR InstName R2
SYMATTR Value 10.4k
SYMBOL Misc\\EuropeanResistor -64 384 R0
SYMATTR InstName R3
SYMATTR Value 10.2k
SYMBOL Misc\\EuropeanResistor -64 592 R0
SYMATTR InstName R4
SYMATTR Value 9.6k
SYMBOL voltage -256 160 R0
WINDOW 3 -25 151 Left 2
WINDOW 123 0 0 Left 0
WINDOW 39 0 0 Left 0
SYMATTR Value PWL(0 0 5m 5)
SYMATTR InstName V1
SYMBOL LED 1088 144 R0
WINDOW 3 40 75 Left 2
SYMATTR Value LUW-W5AP
SYMATTR InstName D3
SYMATTR Description Diode
SYMATTR Type diode
SYMBOL LED 1088 336 R0
WINDOW 3 40 75 Left 2
SYMATTR Value LUW-W5AP
SYMATTR InstName D4
SYMATTR Description Diode
SYMATTR Type diode
SYMBOL Extra\\74HC\\74hc00.i 480 64 R0
SYMATTR InstName U5
SYMBOL Extra\\74HC\\74hc00.i 800 464 R0
SYMATTR InstName U6
SYMBOL Extra\\74HC\\74hc00.i 960 80 R0
SYMATTR InstName U8
SYMBOL Extra\\74HC\\74hc00.i 624 400 R0
SYMATTR InstName U4
SYMBOL Extra\\74HC\\74hc00.i 624 272 R0
SYMATTR InstName U7
SYMBOL Extra\\74HC\\74hc00.i 800 272 R0
SYMATTR InstName U9
SYMBOL voltage -400 160 R0
SYMATTR InstName V2
SYMATTR Value 5V
TEXT 640 40 Left 2 !.inc lib/LM339.LIB
TEXT 640 -40 Left 2 ;Analog-Digital-Convert built with NAND-Gates.\nCreated by AblL
TEXT 640 16 Left 2 !.tran 6m
TEXT 640 64 Left 2 !.inc lib/74hc.lib
