Version 4
SHEET 1 4316 680
WIRE 2576 -512 2288 -512
WIRE 2896 -480 2608 -480
WIRE 3216 -448 2928 -448
WIRE 3536 -416 3248 -416
WIRE 3856 -384 3568 -384
WIRE 2288 -368 2288 -512
WIRE 2304 -368 2288 -368
WIRE 2512 -368 2496 -368
WIRE 2528 -368 2512 -368
WIRE 800 -352 640 -352
WIRE 832 -352 800 -352
WIRE 992 -352 944 -352
WIRE 1728 -336 1712 -336
WIRE 2064 -336 1952 -336
WIRE 2304 -336 2064 -336
WIRE 2608 -336 2608 -480
WIRE 2624 -336 2608 -336
WIRE 2832 -336 2816 -336
WIRE 2848 -336 2832 -336
WIRE 288 -320 -64 -320
WIRE 448 -320 288 -320
WIRE 2576 -304 2576 -512
WIRE 2576 -304 2496 -304
WIRE 2624 -304 2576 -304
WIRE 2928 -304 2928 -448
WIRE 2944 -304 2928 -304
WIRE 3152 -304 3136 -304
WIRE 3168 -304 3152 -304
WIRE 2896 -272 2896 -480
WIRE 2896 -272 2816 -272
WIRE 2944 -272 2896 -272
WIRE 3248 -272 3248 -416
WIRE 3264 -272 3248 -272
WIRE 3472 -272 3456 -272
WIRE 3488 -272 3472 -272
WIRE -64 -256 -64 -320
WIRE 1728 -256 1680 -256
WIRE 1984 -256 1984 -272
WIRE 1984 -256 1952 -256
WIRE 2096 -256 1984 -256
WIRE 1680 -240 1680 -256
WIRE 3216 -240 3216 -448
WIRE 3216 -240 3136 -240
WIRE 3264 -240 3216 -240
WIRE 3568 -240 3568 -384
WIRE 3584 -240 3568 -240
WIRE 3888 -240 3776 -240
WIRE 3536 -208 3536 -416
WIRE 3536 -208 3456 -208
WIRE 3584 -208 3536 -208
WIRE 800 -192 800 -352
WIRE 800 -192 784 -192
WIRE 992 -192 992 -352
WIRE 1008 -192 992 -192
WIRE 544 -176 544 -208
WIRE 656 -176 544 -176
WIRE 672 -176 656 -176
WIRE 1184 -176 1120 -176
WIRE 1248 -176 1184 -176
WIRE 1376 -176 1328 -176
WIRE 1488 -176 1376 -176
WIRE 1552 -176 1488 -176
WIRE 1680 -176 1632 -176
WIRE 1728 -176 1680 -176
WIRE 2096 -176 1952 -176
WIRE 3856 -176 3856 -384
WIRE 3856 -176 3776 -176
WIRE 800 -160 784 -160
WIRE 1008 -160 992 -160
WIRE 1376 -144 1376 -176
WIRE 2096 -144 2096 -176
WIRE 1680 -128 1680 -176
WIRE 1376 -64 1376 -80
WIRE -48 -48 -64 -48
WIRE 2096 -32 2096 -64
WIRE -64 -16 -64 -48
WIRE -48 -16 -64 -16
WIRE 800 -16 800 -160
WIRE 800 -16 640 -16
WIRE 832 -16 800 -16
WIRE 992 -16 992 -160
WIRE 992 -16 944 -16
WIRE -64 16 -64 -16
WIRE 448 16 336 16
WIRE 544 160 544 128
WIRE 656 160 656 -176
WIRE 656 160 544 160
FLAG -64 -176 0
FLAG -64 96 0
FLAG -48 -16 H
IOPIN -48 -16 Out
FLAG 544 -432 H
IOPIN 544 -432 In
FLAG 544 -96 H
IOPIN 544 -96 In
FLAG 448 -352 H
IOPIN 448 -352 In
FLAG 448 -16 H
IOPIN 448 -16 In
FLAG 336 16 f0/32
IOPIN 336 16 In
FLAG 288 -320 fref
FLAG 1184 -176 PFD_out
FLAG 1376 -64 0
FLAG 1488 -176 LF_out
FLAG 1984 -272 5V
IOPIN 1984 -272 In
FLAG 1680 -48 0
FLAG 1680 -240 0
FLAG 1712 -336 5V
IOPIN 1712 -336 In
FLAG 2096 -32 0
FLAG 2064 -336 f0
FLAG -48 -48 5V
IOPIN -48 -48 Out
FLAG 2400 -448 H
IOPIN 2400 -448 In
FLAG 2400 -224 H
IOPIN 2400 -224 In
FLAG 2512 -368 f0/2
FLAG 2720 -416 H
IOPIN 2720 -416 In
FLAG 2720 -192 H
IOPIN 2720 -192 In
FLAG 2832 -336 f0/4
FLAG 3040 -384 H
IOPIN 3040 -384 In
FLAG 3040 -160 H
IOPIN 3040 -160 In
FLAG 3152 -304 f0/8
FLAG 3360 -352 H
IOPIN 3360 -352 In
FLAG 3360 -128 H
IOPIN 3360 -128 In
FLAG 3472 -272 f0/16
FLAG 3680 -320 H
IOPIN 3680 -320 In
FLAG 3680 -96 H
IOPIN 3680 -96 In
FLAG 3888 -240 f0/32
IOPIN 3888 -240 Out
SYMBOL Extra\\74HCT\\74hct74 544 -432 R0
SYMATTR InstName U1
SYMBOL voltage -64 -272 R0
WINDOW 123 0 0 Left 0
WINDOW 39 0 0 Left 0
SYMATTR InstName fref
SYMATTR Value PULSE(0 5 1m 0.01p 0.01p 0.1m 0.2m)
SYMBOL Extra\\74HCT\\74hct74 544 -96 R0
SYMATTR InstName U2
SYMBOL voltage -64 0 R0
SYMATTR InstName V1
SYMATTR Value 5V
SYMBOL Extra\\74HCT\\74hct08 1056 -240 R0
SYMATTR InstName U4
SYMBOL Extra\\74HCT\\74hct04 880 -80 R0
SYMATTR InstName U5
SYMBOL Extra\\74HCT\\74hct00 736 -112 R180
SYMATTR InstName U7
SYMATTR SpiceLine VCC=5  SPEED=0.1  TRIPDT=1e-9
SYMBOL res 1344 -192 R90
WINDOW 0 0 56 VBottom 2
WINDOW 3 32 56 VTop 2
SYMATTR InstName R1
SYMATTR Value 10k
SYMBOL cap 1360 -144 R0
SYMATTR InstName C1
SYMATTR Value 180n
SYMBOL SpecialFunctions\\LTC6990 1840 -256 R0
SYMATTR InstName U3
SYMBOL res 1648 -192 R90
WINDOW 0 0 56 VBottom 2
WINDOW 3 32 56 VTop 2
SYMATTR InstName R2
SYMATTR Value 626k
SYMBOL res 1696 -32 R180
WINDOW 0 36 76 Left 2
WINDOW 3 36 40 Left 2
SYMATTR InstName R3
SYMATTR Value 69.8k
SYMBOL res 2112 -48 R180
WINDOW 0 36 76 Left 2
WINDOW 3 36 40 Left 2
SYMATTR InstName R4
SYMATTR Value 182k
SYMBOL res 2112 -160 R180
WINDOW 0 36 76 Left 2
WINDOW 3 36 40 Left 2
SYMATTR InstName R5
SYMATTR Value 976k
SYMBOL Extra\\74HCT\\74hct74 2400 -448 R0
SYMATTR InstName U6
SYMBOL Extra\\74HCT\\74hct74 2720 -416 R0
SYMATTR InstName U8
SYMBOL Extra\\74HCT\\74hct74 3040 -384 R0
SYMATTR InstName U9
SYMBOL Extra\\74HCT\\74hct74 3360 -352 R0
SYMATTR InstName U10
SYMBOL Extra\\74HCT\\74hct74 3680 -320 R0
SYMATTR InstName U11
SYMBOL Extra\\74HCT\\74hct04 880 -416 R0
SYMATTR InstName U12
TEXT 1464 200 Left 2 !.tran 15m
TEXT 1464 232 Left 2 !.inc 74hct.lib
TEXT 1464 104 Left 2 ;PLL with LTC6990 VCO and 20kHz\nreference frequency at 160kHz\nby AblL
